tests/data/BR-ACFull-sys/LEN_A_4_2020_SECO_2023VM_SE_EXP_N_AC_Full.pwf
TITU
LEN A-4 2020 * SE-CO * 2023VM * SE_EXP_N *
DOPC IMPR
(Op) E (Op) E (Op) E (Op) E (Op) E (Op) E (Op) E (Op) E (Op) E (Op) E
QLIM L VLIM L CREM L CTAP L STEP L NEWT L RCVG L RMON L FILE L SUBS L
CONT L NOVO L CELO L MFCT L VLCR L CPHS L IANG L
99999
DCTE
(Mn) ( Val) (Mn) ( Val) (Mn) ( Val) (Mn) ( Val) (Mn) ( Val) (Mn) ( Val)
BASE   100. DASE   100. TEPA    .01 EXST    .04 TETP     5. TBPA     5.
TLPP     1. TEPR    .01 QLST    .04 TLPR    .01 TLPQ     2. TSBZ    .01
TSBA     5. ASTP    .05 VSTP     5. TLVC    .05 TLTC    .01 TSFR  .1E-7
ZMAX   500. TLPV     .5 VDVM   200. VDVN    40. TUDC   .001 TADC    .01
PGER    30. TPST    .02 VFLD    70. ZMIN   .001 HIST    470 LFIT     10
ACIT    100 LFCV      1 DCIT     10 VSIT     10 LPIT     50 LFLP     10
PDIT     10 LCRT    200 LPRT     60 CSTP     5. ASDC     1.
ICIT     50 DMAX      5 FDIV     2. ICMN    .05 VART     5. TSTP     32
ICMV     .5 APAS    90. CPAR    70. VAVT     2. VAVF     5. VMVF    15.
VPVT     2. VPVF     5. VPMF    10. VSVF    20. VINF     1. VSUP     1.
TLSI     0. NDIR    20. STTR     5. TRPT   100. STIR     1. BFPO     1.
LFPO     .1 TLMT     0. TLMF     0. TLMG     0.
99999
DBAR
(Num)OETGb(   nome   )Gl( V)( A)( Pg)( Qg)( Qn)( Qm)(Bc  )( Pl)( Ql)( Sh)Are(Vf)M(1)(2)(3)(4)(5)(6)(7)(8)(9)(10
   10 L1 VANGRA1UNE001 51005-16. 657.72.76-211. 414.        32.15.49      441000
   11 L1 VANGRA2UNE001 5 988-16.1350.205.8-600. 600.        65. 31.5      441000
   12 L1 VLCBARRUHE005 5 985-13. 838.-275.-450. 350.                       11000
   13 L1 TLCBARRSIN000 51016-18.   0.   0.   0.   0.                       11000
   14 L1 VFUNIL-UHE003 51015-23. 189. -33.-150. 150.       1.14   0.       11000
   16 L1 VFURNASUHE007 51006-18. 973.-122.-350. 350.                       11000
   17 L1 TFURNASSIN000 51020-24.   0.   0.   0.   0.                       11000
   18 L1 VITUMBIUHE005 51013.8711824. -89.-455. 500.                       11000
   19 L1 TITUMBISIN000 51026-7.2   0.   0.   0.   0.                       11000
   20 L1 VMARIMBUHE007 51025-5.91190.-434.-560. 560.                       11000
   21 L1 VMANSO-UHE004 5 97624.1 190.-4.43 -80.  84.                       11020
   22 L1 VM.MORAUHE005 51007-13. 250.-27.2-100. 105.        1.8   0.       11000
   24 L1 VM.MORBUHE004 5 974-15. 144.31.39 -24.  62.        1.2   0.       11000
   28 L1 VPCOLOMUHE004 51018-12. 262.-15.7-100. 100.       1.55   0.       11000
   29 L  LN.MUTU-MT034 5 99519.6                                          461000
   30 L1 VSCRU19UTE000 51009-31.   0.   0.   0.   0.                       11000
   31 L1 VSCRU13UTE000 5 965-31.   0.   0.   0.   0.                       11000
   32 L1 VSCRU16UTE002 51009-25. 350.5.994-180. 220.                       11000
   34 L1 LN.MUT-PCH034 5 99919.6   0.   0.   0.   0.                      461000
   35 L1 VCORUMBUHE003 5 976-2.6 305.-68.5-180. 180.                       11000
   36 L1 VS.MESAUHE003 5 970-7.11071.-386.-480. 480.                       11000
   37 L1 TS.MESASIN000 5 997-12.   0.   0.   0.   0.                       11000
   38 L1 TGRAJA2SIN001 51024-34.   0.48.56-120. 200.   178  1.3   0.       11000
   41 L1 TVITOR2SIN001 51008-36.   0.9.284 -30.  60.                       11000
   42 D  EBAND-1CER345 51019-14.                                           11000
   43 D  EBAND-2CER345 51019-14.                                           11000
   44 L1 TGRAJA1SIN001 51024-34.   0.48.56-120. 200.   178  1.3   0.       11000
   46 L  ECAMPOSCER345 51021-23.                                           11000
   47 L1 TVITOR1SIN001 51006-36.   0.7.698 -35.  60.                       11000
   48 L1 TIBIUNASIN004 51001-42.   0.-69.8-10801200.    86                 11000
   50 L1 TTPRETOSIN001 5 979-44.   0.46.06-180. 300.        .55   0.       11000
   52 L  EP.ACU--RJ345 51026-17.                                          411000
   53 L1 QNOVT-GUTE003 51025-17. 856.-48.6-145.275.5                      411000
   54 L1 PNOVT-VUTE000 51025-16. 443.-3.63-281.530.5                      411000
   55 L  FBALTO-CER230 51012-28.                                           11000
   56 L  IIVAIP3-PR06950 950-39.                                           11000
   57 L  IIVAIP2-PR06950 894-39.                                           11000
   58 L  UIVAIP2-PR000 61011-39.                                           11000
   59 L  UIVAIP3-PR000 61008-39.                                           11000
   60 L  AF.IGUA-PR765 1 983-26.                                           11000
   61 L  CFZ-500-PR500 31023-23.                                           11000
   62 L  AIV-FZ1CAP765 11029-40.                                           11000
   63 L  AIV-FZ2CAP765 11028-40.                                           11000
   64 L  AIV-FZ3CAP765 11026-40.                                           11034
   65 L  AIVAIPO-PR765 11023-35.                                           11000
   66 L  BIVAIPO-PR525 21030-38.                                           11000
   67 L  IIVAIP1-PR06950 947-38.                            .24   0.       11000
   68 L  UIVAIP1-PR000 61008-38.                                           11000
   69 L  AIV-IT1CAP765 11006-33.                                           11000
   70 L  AIV-IT2CAP765 11007-33.                                           11000
   71 L  AIV-IT3CAP765 11007-33.                                           11000
   72 L  AITABER-SP765 11030-37.                                           11000
   73 L  AIT-TP1CAP765 1 998-35.                                           110001
   74 L  AIT-TP2CAP765 1 999-35.                                           11000
   75 L  AIT-TP3CAP765 1 996-35.                                           11000
   76 L  ATPRETO-SP765 1 980-39.                                           11000
   77 L  CTPRETO-SP500 31071-36.                                           11000
   78 L  ETPRETO-SP345 51031-44.                                           11000
   79 L  ITPRETO-SP06950 985-36.                                           11000
   80 L  UTPRET3-SP000 6 985-36.                                           110001
   81 L  UTPRET4-SP000 6 967-44.                                           110001
   82 L  ETPRET2-SP345 51030-44.                                           11000
   84 L  GRESEN2-RJ138 51011-32.                                          101000
   85 L  CFOZ500-PR500 31031-8.8                            60.   0.       11000
   86 L  EIBIUNA-SP345 51040-42.                            66.   0.       11000
   87 L  CRESEND-RJ500 31075-27.                          111.5 22.6      411015
   90 L  EVIANA--ES345 5 992-34.                                           11000
   91 L  NVIANA1-ES013 5 984-37.                                           11000
   92 L  CSB-SM1CAP500 31067-18.                                           11000
   93 L  CSB-SM2CAP500 31078-18.                                           11000
   94 L  CSB-SM3CAP500 31078-18.                                           11000
   95 L  NVIANA2-ES013 5 984-37.                                           11000
   96 L  NVIANA3-ES013 5 984-37.                                           11000
   97 L  EGUARU2-SP345 51011-47.                                           11000
   99 L  BARARAQ-SP525 21010-21.                                           11000
  100 L  CMARIMB-MG500 31065-12.                                           11000
  101 L  CARARAQ-SP500 31061-21.                                           11000
  102 L  CP.CALD-MG500 31073-26.                                           11000
  103 L  CCAMPIN-SP500 31045-35.                                           11000
  104 L  CC.PAUL-SP500 31083-28.                                           11000
  105 L  CANGRA--RJ500 31077-23.                                           11000
  106 L  CADRIAN-RJ500 31066-27.                                           11000
  107 L  CGRAJAU-RJ500 31057-29.                                           11000
  108 L  CS.JOSE-RJ500 31058-27.                                           11000
  109 L  CBYPSAD-RJ500 31066-27.                                           11000
  110 L  UGR1T52-RJ000 61000-34.                                           11000
  112 L  CBA-IB1-PR500 31063-50.                                           11035
  113 L  CBA-IB2-PR500 31063-50.                                           11035
  114 L  CBA-IT1-PR500 31063-50.                                          431000
  115 L  CBA-IT1CAP500 31055-61.                                          431000
  116 L  GIMBTAP-RJ138 51024-33.                                           11000
  117 L  CCAMPO2-RJ500 31015-20.                                           11000
  118 L  UBANDT4-GO000 6 968-17.                                           11000
  119 L  XBANDTE-GO013 5 968-17.                                           11000
  120 L  EP.CALD-MG345 51011-33.                                           11000
  121 L  UPCAT51-MG000 61002-34.                                           110002
  122 L  CIBIUNA-SP500 31086-43.                                           11000
  123 L  ECAMPIN-SP345 51003-40.                                           11000
  124 L  UCAMPI1-SP000 6 973-41.                                           11000
  125 L  CIB-BA1CAP500 31046-36.                                           11000
  126 L  EGUARUL-SP345 51011-47.                                           11000
  127 L  EMO-RL1-SP345 51022-45.                                           11000
  128 L  EMO-RL2-SP345 51022-45.                                           11015
  129 L  EMOGI---SP345 51018-45.                                           11000
  130 L  CIB-BA2CAP500 31046-36.                                           11000
  131 L  EM.MORA-MG345 51025-19.                                           11000
  133 L  UADRT1A-RJ000 61027-32.                                           11000
  134 L  ELCBARR-SP345 51018-18.                                           11000
  135 L  UJACT1A-RJ000 6 998-35.                                           11016
  136 L  EFURNAS-MG345 51025-24.                                           11000
  137 L  UJACT2A-RJ000 6 998-35.                                           11016
  138 L  EITUTIN-MG345 51037-32.                                           11000
  139 L  UADRT51-RJ000 61034-30.                                           110601
  140 L  EADRIAN-RJ345 51030-30.                                           11000
  141 L  UADRT53-RJ000 61037-31.                                           110001
  142 L  UADRT55-RJ000 61039-31.                                           110601
  143 L  UADRT2B-RJ000 61027-32.                                           11030
  144 L  EJACARE-RJ345 51013-32.                                           11000
  145 L  UADRT1B-RJ000 61027-32.                                           11000
  146 L  UADRT2A-RJ000 61026-32.                                           11000
  147 L  ECAMPOS-RJ345 51024-23.                                           11000
  148 L  UCAMPO1-RJ000 61016-26.                                           11000
  149 L  EVITORI-ES345 5 992-36.                                           11000
  150 L  UVITAT1-ES000 6 986-38.                                           11000
  152 L  UVITAT2-ES000 6 986-38.                                           11000
  153 L  UVITAT3-ES000 6 985-38.                                           11000
  154 L  NVITAT2-ES013 51002-38.                                           11000
  155 L  NVITAT3-ES013 51002-38.                                           11000
  156 L  NVITAT4-ES013 51000-38.                                           11000
  157 L  ECAMPCA-RJ345 51024-23.                                           11040
  158 L  UVITAT4-ES000 6 986-38.                                           11000
  159 L  XJA-R30-RJ013 5 998-35.                                           11016
  160 L  XJB-R60-RJ013 5 998-35.                                           11016
  161 L  FMO-FCE-SP230 51020-45.                            .33   0.       11000
  162 L  UCAMAT1-SP000 6 983-42.                                           11000
  163 L  XCAMPI--SP013 5 954-42.                                           11000
  164 L  UPCAT02-MG000 61005-35.                                           11050
  165 L  NP.CAL--MG013 5 973-35.                                           11050
  166 L  UJACT1B-RJ000 6 998-35.                                           11016
  167 L  XJA-R60-RJ013 5 998-35.                                           11016
  169 L  GSJOSE2-RJ138 51040-29.                                           11000
  170 L  GP.CALD-MG138 51028-35.                                           11000
  171 L  GCAMPIN-SP138 51012-43.                           1.01   0.       11000
  172 L  GIMBARE-RJ138 51024-31.                                           11000
  173 L  GADRIAN-RJ138 51031-32.                                           11000
  174 L  GR.LEAO-RJ138 51039-27.                                           11000
  175 L  GCAMPOS-RJ138 51032-26.                            .25   0.       11000
  176 L  UCAMPI2-SP000 6 971-40.                                           11000
  177 L  GVITORI-ES138 51005-38.                                           11000
  178 L  GGRAJAU-RJ138 51001-34.                                           11000
  179 L  UGR2T54-RJ000 61000-34.                                           11000
  180 L  GJACAR2-RJ138 51000-34.                                           11000
  181 L  GANGDEF-RJ138 51010-29.                                           11037
  182 L  GFUNIL--RJ138 51030-27.                                           11000
  183 L  GC.PAUL-SP138 51028-29.                                           11000
  184 L  GS.CRUZ-RJ138 51014-31.                                           11000
  185 L  GANGRA--RJ138 51012-22.                             3. 1.45       11000
  186 L  NCAMPI2-SP013 5 971-40.                                           11000
  187 L  GM.MORA-MG138 51030-21.                                           11000
  189 L  UBGERT1-DF000 61029-24.                                           11000
  190 L  GP.COL--MG138 51027-17.                                           11000
  192 L  NCM1CAP-RJ013 51016-26.                                           11000
  193 L  NCM1REA-RJ013 51016-26.                                           11000
  194 L  NADRT55-RJ013 51039-31.                                           11080
  195 L  NADRT53-RJ013 51037-31.                           2.31   0.       11000
  196 L  NCAMPI1-SP013 5 892-41.                                           11000
  197 L  NADRT51-RJ013 51034-30.                                           11080
  198 L  NPCALAT-MG013 5 919-34.                           1.17   0.       11000
  199 L  NVITAT1-ES013 51002-38.                            .42   0.       11000
  200 L  UUCAMP1-RJ000 6 987-28.                                           11000
  201 L1 VRSIL-1UTE000 5 987-28.   0.   0.   0.   0.       1.16   0.       11000
  202 L  UUCAMP2-RJ000 6 987-28.                                           11000
  203 L  VRSIL-2UTE000 5 987-28.                           1.16   0.       11000
  204 L  NADRT1B-RJ013 51027-32.                                           11000
  205 L  NADRT2A-RJ013 51071-32.                                           11000
  206 L  NADRT2B-RJ013 51071-32.                                           11030
  208 L  NBGERT1-DF013 51029-24.                                           11000
  209 L  XADRIAN-RJ013 51027-32.                                           11000
  210 L  CITUMBI-MG500 31082-7.2                                           11000
  211 L  UCAMPO2-RJ000 61015-26.                                           11000
  212 L  NCM2CAP-RJ013 51015-26.                                           11000
  213 L  EMARIMB-MG345 51085-12.                                           11000
  214 L  UMARIMB-MG000 61078-13.                                           11000
  215 L  NCM2REA-RJ013 51015-26.                                           11000
  216 L  EP.COL--MG345 51052-13.                                           11000
  217 L  EITUMBI-MG345 51027-8.4                                           11000
  218 L  EBANDEI-GO345 5 992-16.                                           11000
  219 L  EB.SUL--DF345 51026-17.                                           11000
  220 L  ECORUMB-GO345 51026-7.9                                           11000
  221 L  LB.GERA-DF034 5 986-24.                                           1 991
  222 L  UBSULT2-DF000 61025-19.                                           11000
  223 L  UBANDT1-GO000 6 967-17.                                           11000
  224 L  UBANDT2-GO000 6 964-17.                                           11000
  225 L  FITUMBI-MG230 51025-7.7                                           11000
  226 L  FBANDEI-GO230 5 994-17.                            .28   0.       11000
  227 L  FB.GERA-DF230 51025-19.                                           11000
  228 L  FB.SUL--DF230 51025-19.                                           11000
  229 L  FB.ALTO-GO230 51016-28.                            .54   0.       11000
  230 L  FS.MESA-GO230 51022-12.                                           11000
  231 L  FR.VERD-GO230 51011-4.3                                           11000
...
99999
DLIN
(De )d O d(Pa )NcEP ( R% )( X% )(Mvar)(Tap)(Tmn)(Tmx)(Phs)(Bc  )(Cn)(Ce)Ns(Cq)(1)(2)(3)(4)(5)(6)(7)(8)(9)(10
   29      4903 1            40.         1.                      20. 20.   20.
   34        29 1     31.6  109.    .2                           50. 50.   50.
   38       17954         3.0195         1.                     200.200.   75.
   44       11052             3.         1.                     200.200.  100.
   50        81 4          2.498         1.                     500.500.  225.
   52       147 1    .15441.554627.825                          12751492  1492
   52       147 2    .15441.554627.825                          12751492  1492
   53        52 1          .1217         1.                     996.1195  370.
   54        52 1          .6576         1.                     548.658.  550.
   56        59 1         3.3852         1.                     550.550.  251.
   57        58 1         3.6218         1.                     550.550.   73.
   60        62 1     .076  1.84 927.8                          36844173  3684
   60        63 1     .076  1.85 929.1                          36844173  3684
   60        64 1      .08  1.89954.57                          36844173  3684
   61        60 1 T         .622       1.05                     16501815  1650
   61        60 2 T        .6424       1.05                     16501815  1650
   61        60 3 T         .623       1.05                     16501815  1650
   61        60 4 T        .6226       1.05                     16501815  1650
   61        60 5           .623       1.05                     16501980  1650
   62        65 1 T        -.749                                36844173  3683
   63        65 1 T        -.749                                36844173  3683
   64        65 1 T        -.749                                36844173  3683
   65        58 1          .8224         1.                     16501650  115.
   65        59 1          .7734         1.                     16501833  2598
   65        68 1           .697         1.                     16501815  1650
   65        69 1          -.778                                36844173  3683
   65        70 1          -.778                                36844173  3683
   65        71 1          -.778                                36844173  3683
   66        58 1         -.1703      1.022 .8381.053         661650165032 92.
   66        59 1         -.1183      1.022 .8381.053         661650183332251.
   66        68 1         -.0303      1.022 .8381.053         6616501815321650
   67        68 1         3.5455         1.                     550.550.  1650
   69        72 1     .064  1.53  760.                          41334174  4133
   70        72 1      .06  1.53 755.7                          41334174  4133
   71        72 1      .06  1.54 762.9                          41334174  4133
   72        73 1          -.915                                36844173  3683
   72        74 1          -.915                                36844173  3683
   72        75 1          -.915                                36844173  3683
   73        76 1      .07  1.75 877.5                          41334174  4133
   74        76 1      .07  1.75  873.                          41334174  4133
   75        76 1      .07   1.8901.17                          41334174  4133
   76        80 3           .697         1.                     16501815   60.
   76        81 4         1.0276         1.                     15001650  118.
   77        76 1          .6739      1.088                     16501650  1650
   77        76 2          .6552      1.088                     16501815  300.
   77        80 3         -.0303      1.088                     16501815  150.
   77       104 1 T   .162   2.5 216.6                          18552337  1855
   77       598 1 T   .107  1.44 133.4                          18552252  1855
   77      3383 2    .11621.7244259.01                          27282728  2728
   78        76 5          .9007      1.064                     15001650  147.
   78        81 4         -.1069      1.064                     15001650  103.
   78        82 1           1.26                                450.450.  1992
   78       449 1 T    .07   .6612.845                          11841392  1392
   78       449 2 T    .07   .6612.845                          11841392  1392
   78       464 3 T    .11   .9917.073                          912.1103  912.
   78       471 1    .0954 .7982 14.39                          11841392  1184
   78       471 2    .0954 .7982 14.39                          11841392  1184
   79        80 3         3.5455         1.                     550.550.  150.
   82        76 6          .8916      1.064                     15001650  1660
   82        76 7          .8714      1.064                     15001800  1660
   82       449 3 T    .07   .6612.845                          13501350  300.
   82       449 4 T    .07   .6612.845                          13501350  100.
   82       464 1 T     .1   .9517.073                          912.1103  100.
   82       464 2 T     .1   .9417.073                          912.1103  100.
   82       471 3    .0917 .8555 13.84                          912.1103  1103
   84      1780 1       .7  1.78  .454                          120.120.  120.
   84      1780 2       .7  1.78  .454                          120.120.  120.
   84      1788 1      .32   .82  .207                          120.120.  120.
   84      1788 2      .32   .82  .207                          120.120.  120.
   85      1103 3 T  .0056 .096910.041                          27283377  3377
   85      1103 4 T  .0054 .0936 9.691                          27283377  3377
   86        48 1         .71475      1.013                     10501050  1050
   86        78 2 T   .185   2.6  60.1                          12801613  1280
   86        82 1     .185   2.6  60.1                          12801613  300.
   86       122 1         1.7111       .962                     750.750.  206.
   86       122 2         1.7042       .962                     750.750.   33.
   86       122 3         1.6718       .962                     750.900.  103.
   86       488 1    .09481.4987 41.91                          20202390  2390
   86       488 2    .09481.4987 41.91                          20202390  2390
   87        84 1           5.34      1.025 .9051.048        -84300.360.32300.
   87      9605 1 T    .08  1.22 102.4                          18552337  1855
   90      2590 1            .01         1.                     370.370.  370.
   90      2608 1         4.8466      1.005                     225.270.   51.
   90      2618 1         4.8611      1.005                     225.270.  150.
   90      2628 1         4.6496      1.004                     225.270.  100.
   90      3032 1 T   .225 2.46841.546                          853.1075  853.
   91      2608 1         9.7001         1.                      75. 75.   75.
   95      2618 1         9.7726         1.                      75. 75.   75.
   96      2628 1         9.8304         1.                      75. 75.   75.
   97        86 1     .108  1.83  51.2                          17072150   25.
   97        86 2     .108  1.83  51.2                          17072150  136.
   99       101 1            .01       .952                     99999999   50.
   99       556 1      .18  2.81 350.1                          20012001  2001
  100        20 1           .903         1.                     15201520  1520
  100       214 1          2.979        .95  .95 1.05        100560.717.32560.
  100       535 1 T   .153   2.4 203.8                          17321732  1732
  100      3110 1    .11881.8126 159.6                          19922390  1992
  100      4598 1    .0058 .08747.3613                          18552337  1855
  100      4598 2    .0057  .0867.2403                          18552337  1855
  100      4598 3   .00583.08685 6.981                          19922390  1992
  101       102 1     .156  2.46 208.5                          18552337  1855
  101       103 1     .152  2.39 202.6                          18552337  1855
  101      4598 1 T  .1798 2.761236.42                          18552337  1855
  101      4598 2 T  .18012.7657236.83                          18552337  1855
  102       12151           2.93       1.05                     560.717.  560.
  102      1503 1     .136  2.15 182.7                          18552337  1855
  103       12451         2.9458       1.05                     560.717.  560.
  103       17654         2.9116       1.05                     560.728.  560.
  103       609 1     .064  .98883.418                          18552337  1855
  103      6609 1     .024   .37  31.7                          18552337   61.
  103      6609 2   .01706.26903 38.83                          24773464  2337
  104        87 2      .05   .78  66.5                          18552337   39.
  104       105 1 T   .092  1.48 119.6                          18552337  1855
  104       598 1     .075  1.15  98.9                          18552252  1855
  104       609 1     .138  2.14181.68                          18552337  1855
  104      1503 1     .052   .82  69.7                          18552337  1855
  104      3383 2    .0138 .2045 30.71                          27282728  2728
  104      9605 1 T    .13  1.97 166.2                          18552337  1855
  104      9626 3    .10811.6851252.04                          24732598   72.
  105        10 1           1.97      1.075                     759.759.  759.
  105        11 1            .95        1.1                     14501450  1450
  105      9601 1     .092 1.363 115.3                          18552337  558.
  105      9608 1 T   .101 1.518 127.8                          18552337  1855
  106       108 1     .019  .389  42.1                          25982598  2598
  106       109 1           .001                                99999999   15.
  106       139 1          3.103       1.05                     560.644.  2598
  106       141 1         3.8333       1.05                     560.717.  560.
  106       142 1         4.1368       1.05                     560.717.  560.
  107       109 1 T   .033   .68  73.8                          25982598   83.
  107       11052          2.141       1.05                     600.720.   75.
  107       17954         2.1497       1.05                     600.720.  150.
  109      9626 3    .0127 .198629.698                          24732598   72.
  112       895 1            .01       1.05                     12992252   88.
  113       895 1            .01       1.05                     12992252   88.
  114       115 1         -2.125                                19312124  1931
  114       895 1            .01       1.05                     26163715   88.
  115      6609 1   .259574.1804  647.                          26163715  2616
  116       172 1D     .13   .72  .207                          145.145.  145.
  116       173 1      .62  3.61 1.033                          153.193.  146.
  116      1732 1D    2.29 13.23 3.804                          146.207.  146.
  116      3398 1     1.96 11.37 3.289                          153.193.  153.
  117      4353 1    .13482.4349361.21                          28003400  2800
  117      4353 2    .13482.4349361.21                          28003400  2800
  119       118 4         15.049         1.                      75. 75.   75.
  120       12151          -.526       1.01                     560.717.  560.
  120       126 1       .6  5.95  92.8                          776.977.  853.
  120       126 2     .606  6.02  93.8                          776.977.  853.
  120       164 2         7.5449       .957                     150.150.  150.
  120       697 1     .394  4.39 74.85                          853.1075  125.
  122       125 1         -2.051                                19312251  532.
  122       130 1         -2.051                                19312251  532.
  122      6609 1     .078   1.2 103.2                          18552337  1855
  123       120 1 T   .357  3.95  66.7                          853.1075  853.
  123       12451          -.528       1.03                     560.717.  560.
  123       162 1         5.5633      1.004                     150.176.  166.
  123       17654         -.4129       1.03                     560.728.  560.
  125       112 1     .308 3.958444.84                          12992252  153.
  126        97 1            .01                                99999999  9999
  126       123 1 T    .25  2.76  46.5                          853.1075  853.
  126       442 1       .1   .99  15.2                          776.977.  558.
  127       129 1            .76                                956.956.  912.
  128       129 1            .76                                956.956.  912.
  129       697 1     .182  2.03 34.67                          717.717.  125.
  130       113 1     .308 3.958444.84                          12992252  153.
  131        22 1          4.432         1.                     378.378.  378.
  131       187 1         2.5267      .9884  .95 1.05       -187400.480.32100.
  131       187 2         2.7184      .9884  .95 1.05       -187400.480.32  5.
  131      3012 1     .037   .41  6.87                          853.1075  853.
  134        12 1          1.068       .999                     11361136  1136
  134        13 1           5.34       .999                     99999999  100.
  134       120 1     .556  6.16 105.3                          853.1075  853.
  134       120 2     .553  6.13 107.7                          853.1075  853.
  134      3012 1     .068   .75 12.71                          853.1075  853.
  134      3012 2     .069   .76 12.68                          853.1075  853.
  136        16 1          1.097         1.                     12801280  1280
  136        17 1           7.68         1.                     99999999  100.
  136       120 1 T   .436   4.3  66.6                          776.977.  776.
  136       120 2 T   .436   4.3  66.6                          776.977.  776.
  136       131 1     .348  3.42  52.8                          776.956.  717.
  136       138 1     .649  6.46 100.8                          776.977.  776.
  136       367 1 T    .22  2.18  33.4                          776.977.  776.
  136       367 2 T    .18  1.7834.299                          11321132  1132
  136      4360 1      .44   4.9  83.6                          853.1075  853.
  138       331 1    .4225 4.39973.673                          11591159  1159
  138      9013 1     .322 3.178 58.24                          11231383  1123
  140       133 1          4.678      1.004                     225.225.  2728
  140       138 1 T   .652   6.5 101.4                          776.896.  776.
  140       138 2 T   .558  6.19 105.7                          853.896.  853.
  140       139 1          -.632         1.                     560.644.  1299
  140       141 1         -1.211         1.                     560.717.  560.
  140       142 1         -1.504         1.                     560.717.  560.
  140       143 1         4.6867      1.004                     225.252.  225.
  140       144 1      .11 1.251 19.36                          776.956.  717.
  140       145 1         4.6467      1.005                     225.225.  225.
  140       146 1         4.6651      1.005                     225.265.  225.
  140      1781 1     .295   3.3 57.16                          853.1075   30.
  140      9607 1     .212  2.35 40.23                          853.1075  853.
  140      9609 2     .077   .84 13.96                          853.1075  853.
  144       135 1           4.42      1.004                     225.270.  1650
  144       137 1         4.4185      1.004                     225.270.  225.
...
99999
DCSC
(De ) O  (Pa )NcEPB      (Xmin)(Xmax)( Xv )C ( Vsp) (Ext)Nst(Cn)(Ce)(Cq)(1)(2)(3)(4)(5)(6)(7)(8)(9)(10
 7594     5590 1          -1.59  -.53 -.637X  -.637  7594   999999999999
 7200     7201 1           -.95  -.95  -.95X   -.95  7200   19492631150.
 7100     7102 1           -.95  -.95  -.95X   -.95  7100   19492631150.
 7200     7203 1          -.952 -.952 -.952X  -.952  7200   19492631 54.
 7100     7104 1          -.952 -.952 -.952X  -.952  7100   19492631 71.
 7200     7209 1          -.952 -.952 -.952X  -.952  7200   19492631100.
 7100     7105 1          -.952 -.952 -.952X  -.952  7100   19492631100.
 7300     7301 1          -.952 -.952 -.952X  -.952  7300   12991949 15.
 7300     7303 1          -.952 -.952 -.952X  -.952  7300   12991949 34.
 7300     7305 1           -.96  -.96  -.96X   -.96  7300   14441949 47.
 5436     5437 1         -1.901-1.901-1.904X -1.904  5436   15591992672.
 5436     5575 1          -1.92 -1.92 -1.92X  -1.92  5436   15591992200.
 6440     7306 1          -1.58 -1.58 -1.58X  -1.58  6440   164522211645
 6082     6444 2          -.598 -.598 -.598X  -.598  6082   173423411734
 6360     6080 2          -.598 -.598 -.598X  -.598  6360   173423411734
 7300     7304 1          -.952 -.952 -.952X  -.952  7300   14291949 60.
 7594     7593 1          -.952 -.952 -.952X  -.952  7594   12991949350.
 7300     7302 1          -.952 -.952 -.952X  -.952  7300   142919491429
 5436     5435 3         -1.749-1.749-1.749X -1.749  5436   15591992365.
 5436     5576 4          -1.75 -1.75 -1.75X  -1.75  5436   15591992147.
43953     5574 1          -2.08 -2.08 -2.08X  -2.08 43953   15152046150.
 7100     7103 1          -.952 -.952 -.952X  -.952  7100   17322338 77.
  235     7237 1          -.637 -.637 -.637X  -.637   235   173223381732
 7100     7101 1          -.952 -.952 -.952X  -.952  7100   17322338467.
  235     7236 1          -.637 -.637 -.637X  -.637   235   173223381732
 7100     7235 1          -.536 -.536 -.536X  -.536  7100   19492631100.
 7113     7238 1         -1.412-1.412-1.412X -1.412  7113   21652923 20.
43954     6513 1          -1.37 -1.37 -1.37X  -1.37 43954   168916891921
43955     6512 1          -1.37 -1.37 -1.37X  -1.37 43955   16891689 30.
43956     6515 1         -1.136-1.136-1.136X -1.136 43956   19922598200.
43957     6514 1         -1.136-1.136-1.136X -1.136 43957   19922598400.
 5580     6517 1         -1.096-1.096-1.096X -1.096  5580   19922685 85.
 6700     6702 1         -1.096-1.096-1.096X -1.096  6700   19922685 90.
 6700     6701 1           -.79  -.79  -.79X   -.79  6700   19922685107.
 6700     6703 1          -.792 -.792 -.792X  -.792  6700   19922698139.
 6444     6442 1         -.8847-.8847-.8847X -.8847  6444   207828062078
 3007     3050 1         -.8847-.8847-.8847X -.8847  3007   207828062078
 6444     6445 1          -.578 -.578 -.578X  -.578  6444   173423411734
 6360     6443 1          -.578 -.578 -.578X  -.578  6360   173423411734
  299     3005 1          -.985 -.985 -.985X  -.985   299   160221636666
 3007     3006 1          -.985 -.985 -.985X  -.985  3007   16002163288.
43958     6510 1          -.876 -.876 -.876X  -.876 43958   19922685100.
43959     6511 1          -.712 -.712 -.712X  -.712 43959   19922685100.
43952     5572 5          -1.88 -1.88 -1.88X  -1.88 43952   15152046150.
 5570     5577 2         -1.539-1.539-1.539X -1.539  5570   15591992686.
 8100     8101 1         -1.957-1.957-1.957X -1.957  8100   20182724 86.
 8100     8102 2         -1.957-1.957-1.957X -1.957  8100   20182724125.
 8100     8103 1         -.9037-.9037-.9037X -.9037  8100   19402619103.
 8200     8201 1         -.9443-.9443-.9443X -.9443  8200   19402619218.
 8100     8104 2         -.9037-.9037-.9037X -.9037  8100   19402619115.
 8200     8202 2         -.9443-.9443-.9443X -.9443  8200   19402619 27.
 8200     8203 1         -1.273-1.273-1.273X -1.273  8200   17322338 32.
 8300     8301 1         -1.333-1.333-1.333X -1.333  8300   17322338 92.
 8200     8204 2         -1.273-1.273-1.273X -1.273  8200   17322338 80.
 8300     8302 2         -1.333-1.333-1.333X -1.333  8300   17322338 95.
 8300     8303 1         -1.208-1.208-1.208X -1.208  8300   16452221 57.
 8400     8401 1         -1.208-1.208-1.208X -1.208  8400   16452221137.
 8300     8304 2         -1.208-1.208-1.208X -1.208  8300   16452221 98.
 8400     8402 2         -1.208-1.208-1.208X -1.208  8400   16452221103.
 8400     8403 1          -.817 -.817 -.817X  -.817  8400   15932151125.
 8500     8405 1          -.817 -.817 -.817X  -.817  8500   15932151 81.
 8400     8404 2          -.817 -.817 -.817X  -.817  8400   15932151103.
 8500     8406 2          -.817 -.817 -.817X  -.817  8500   15932151956.
 6489     6487 1          -5.53 -5.53 -5.53X  -5.53  6489   558.686.150.
 7592     7591 1           -.95  -.95  -.95X   -.95  7592   12991949239.
 6400     6509 3           -.69  -.69  -.69X   -.69  6400   19922685127.
 6400     6507 4          -.704 -.704 -.704X  -.704  6400   199226851992
 7592     5590 1          -1.59  -.53 -.637X  -.637  7592   129919491299
99999
DBSH
(NFr) O (NTo) Nc C (Vmn (Vmx Bctrl (Qini) T A (Extr
   56            D 0800 1200    56  -180. C
(G  O E (U) UOp (Sht )
10        2   1  -180.
FBAN
(NFr) O (NTo) Nc C (Vmn (Vmx Bctrl (Qini) T A (Extr
   57            D 0800 1200    57  -360. C
(G  O E (U) UOp (Sht )
10        3   2  -180.
FBAN
(NFr) O (NTo) Nc C (Vmn (Vmx Bctrl (Qini) T A (Extr
   65            D 0900 1046    65        C
(G  O E (U) UOp (Sht )
10        1   0  -330.
FBAN
(NFr) O (NTo) Nc C (Vmn (Vmx Bctrl (Qini) T A (Extr
   67            D 0800 1200    67  -180. C
(G  O E (U) UOp (Sht )
10        3   1  -180.
FBAN
(NFr) O (NTo) Nc C (Vmn (Vmx Bctrl (Qini) T A (Extr
   72            D 0900 1046    72  -660. C
(G  O E (U) UOp (Sht )
10        1   1  -330.
20        1   1  -330.
FBAN
(NFr) O (NTo) Nc C (Vmn (Vmx Bctrl (Qini) T A (Extr
   78            D 0950 1050    78   200. C
(G  O E (U) UOp (Sht )
10        4   1   200.
FBAN
(NFr) O (NTo) Nc C (Vmn (Vmx Bctrl (Qini) T A (Extr
   79            D 0800 1200    79        C
(G  O E (U) UOp (Sht )
10        2   0  -180.
FBAN
(NFr) O (NTo) Nc C (Vmn (Vmx Bctrl (Qini) T A (Extr
   82            D 0950 1050    82   200. C
(G  O E (U) UOp (Sht )
10        5   1   200.
FBAN
(NFr) O (NTo) Nc C (Vmn (Vmx Bctrl (Qini) T A (Extr
   85            F 0950 1100    85  1540. C
(G  O E (U) UOp (Sht )
10        3   3   280.
20        2   2   350.
FBAN
(NFr) O (NTo) Nc C (Vmn (Vmx Bctrl (Qini) T A (Extr
   86            F 0950 1050    86 1787.4 C
(G  O E (U) UOp (Sht )
10        2   2    59.
20        3   3  220.8
30        4   3   237.
40        1   0  279.8
50        2   0   294.
60        2   1   296.
FBAN
(NFr) O (NTo) Nc C (Vmn (Vmx Bctrl (Qini) T A (Extr
   90    3032  1 D 0950 1050    90   -60. C      90
(G  O E (U) UOp (Sht )
10        1   1   -60.
FBAN
(NFr) O (NTo) Nc C (Vmn (Vmx Bctrl (Qini) T A (Extr
  210     100  1 F 1000 1100   100        C     100
(G  O E (U) UOp (Sht )
10        1   0  -100.
FBAN
(NFr) O (NTo) Nc C (Vmn (Vmx Bctrl (Qini) T A (Extr
  100    4598  1 F 1000 1100   100        C     100
(G  O E (U) UOp (Sht )
10        1   0  -100.
FBAN
(NFr) O (NTo) Nc C (Vmn (Vmx Bctrl (Qini) T A (Extr
  100    4598  2 F 1000 1100   100        C     100
(G  O E (U) UOp (Sht )
10        1   0  -100.
FBAN
(NFr) O (NTo) Nc C (Vmn (Vmx Bctrl (Qini) T A (Extr
  103     609  1 D 0950 1100   103 -112.4 C     103
(G  O E (U) UOp (Sht )
10        1   1 -112.4
FBAN
(NFr) O (NTo) Nc C (Vmn (Vmx Bctrl (Qini) T A (Extr
  104      87  2 D 1000 1100   104  -136. C     104
(G  O E (U) UOp (Sht )
10        1   1  -136.
FBAN
(NFr) O (NTo) Nc C (Vmn (Vmx Bctrl (Qini) T A (Extr
  104    9605  1 D 1000 1100   104        C     104
(G  O E (U) UOp (Sht )
10        1   0  -136.
FBAN
(NFr) O (NTo) Nc C (Vmn (Vmx Bctrl (Qini) T A (Extr
  105    9601  1 D 0950 1100   105        C     105
(G  O E (U) UOp (Sht )
10        1   0  -136.
FBAN
(NFr) O (NTo) Nc C (Vmn (Vmx Bctrl (Qini) T A (Extr
 9605     106  1 D 1000 1100   106        C     106
(G  O E (U) UOp (Sht )
10        1   0  -136.
FBAN
(NFr) O (NTo) Nc C (Vmn (Vmx Bctrl (Qini) T A (Extr
 9605     106  2 D 1000 1100   106        C     106
(G  O E (U) UOp (Sht )
10        1   0  -136.
FBAN
(NFr) O (NTo) Nc C (Vmn (Vmx Bctrl (Qini) T A (Extr
  117            F 1000 1100   117  -300. C
(G  O E (U) UOp (Sht )
10        3   3  -100.
FBAN
(NFr) O (NTo) Nc C (Vmn (Vmx Bctrl (Qini) T A (Extr
  120            D 0950 1050   120        C
(G  O E (U) UOp (Sht )
10        1   0   150.
FBAN
(NFr) O (NTo) Nc C (Vmn (Vmx Bctrl (Qini) T A (Extr
  122            D 0950 1100   122        C
(G  O E (U) UOp (Sht )
10        1   0  -180.
FBAN
(NFr) O (NTo) Nc C (Vmn (Vmx Bctrl (Qini) T A (Extr
  123            D 0950 1050   123        C
(G  O E (U) UOp (Sht )
10        2   0   100.
FBAN
(NFr) O (NTo) Nc C (Vmn (Vmx Bctrl (Qini) T A (Extr
  126            D 0950 1050   126        C
(G  O E (U) UOp (Sht )
10        1   0   100.
20        1   0   150.
FBAN
(NFr) O (NTo) Nc C (Vmn (Vmx Bctrl (Qini) T A (Extr
  138            D 0950 1050   138   -20. C
(G  O E (U) UOp (Sht )
10        3   1   -20.
20        1   0  -100.
FBAN
(NFr) O (NTo) Nc C (Vmn (Vmx Bctrl (Qini) T A (Extr
  140            D 0950 1050   140   325. C
(G  O E (U) UOp (Sht )
10        2   2  162.5
FBAN
(NFr) O (NTo) Nc C (Vmn (Vmx Bctrl (Qini) T A (Extr
 3966     147  1 D 0950 1050   147        C     147
(G  O E (U) UOp (Sht )
10        1   0   -60.
FBAN
(NFr) O (NTo) Nc C (Vmn (Vmx Bctrl (Qini) T A (Extr
 3966     147  2 D 0950 1050   147        C     147
(G  O E (U) UOp (Sht )
10        1   0   -60.
FBAN
(NFr) O (NTo) Nc C (Vmn (Vmx Bctrl (Qini) T A (Extr
 3344     149  1 D 0950 1050   149   -60. C     149
(G  O E (U) UOp (Sht )
10        1   1   -60.
FBAN
(NFr) O (NTo) Nc C (Vmn (Vmx Bctrl (Qini) T A (Extr
 3032     149  1 D 0950 1050   149        C     149
(G  O E (U) UOp (Sht )
10        1   0   -60.
FBAN
(NFr) O (NTo) Nc C (Vmn (Vmx Bctrl (Qini) T A (Extr
  154            D 0900 1100   154    10. C
(G  O E (U) UOp (Sht )
10        3   1    10.
FBAN
(NFr) O (NTo) Nc C (Vmn (Vmx Bctrl (Qini) T A (Extr
  155            D 0900 1050   155    10. C
(G  O E (U) UOp (Sht )
10        3   1    10.
FBAN
(NFr) O (NTo) Nc C (Vmn (Vmx Bctrl (Qini) T A (Extr
  156            D 0900 1100   156    10. C
(G  O E (U) UOp (Sht )
10        3   1    10.
FBAN
(NFr) O (NTo) Nc C (Vmn (Vmx Bctrl (Qini) T A (Extr
  157            D 0950 1050   157   120. C
(G  O E (U) UOp (Sht )
10        2   2    60.
FBAN
(NFr) O (NTo) Nc C (Vmn (Vmx Bctrl (Qini) T A (Extr
  159            D 0950 1050   159        C
(G  O E (U) UOp (Sht )
10        1   0   -30.
FBAN
(NFr) O (NTo) Nc C (Vmn (Vmx Bctrl (Qini) T A (Extr
  160            D 0950 1100   160        C
(G  O E (U) UOp (Sht )
10        1   0   -30.
FBAN
(NFr) O (NTo) Nc C (Vmn (Vmx Bctrl (Qini) T A (Extr
  163            D 0800 1200   163   -25. C
(G  O E (U) UOp (Sht )
10        2   1   -25.
FBAN
(NFr) O (NTo) Nc C (Vmn (Vmx Bctrl (Qini) T A (Extr
  165            D 0950 1050   165   -25. C
(G  O E (U) UOp (Sht )
10        2   1   -25.
FBAN
(NFr) O (NTo) Nc C (Vmn (Vmx Bctrl (Qini) T A (Extr
  167            D 0950 1100   167        C
(G  O E (U) UOp (Sht )
10        1   0   -30.
FBAN
(NFr) O (NTo) Nc C (Vmn (Vmx Bctrl (Qini) T A (Extr
  169            D 0950 1050   169   250. C
(G  O E (U) UOp (Sht )
10        2   1   250.
FBAN
(NFr) O (NTo) Nc C (Vmn (Vmx Bctrl (Qini) T A (Extr
  170            D 1000 1050   170        C
(G  O E (U) UOp (Sht )
10        1   0   150.
FBAN
(NFr) O (NTo) Nc C (Vmn (Vmx Bctrl (Qini) T A (Extr
  174            D 0900 1100   174    75. C
(G  O E (U) UOp (Sht )
10        2   1    75.
FBAN
(NFr) O (NTo) Nc C (Vmn (Vmx Bctrl (Qini) T A (Extr
  175            D 0900 1100   175    50. C
(G  O E (U) UOp (Sht )
10        2   1    50.
FBAN
(NFr) O (NTo) Nc C (Vmn (Vmx Bctrl (Qini) T A (Extr
  180            D 0950 1050   180   100. C
(G  O E (U) UOp (Sht )
10        2   1   100.
FBAN
(NFr) O (NTo) Nc C (Vmn (Vmx Bctrl (Qini) T A (Extr
  185            D 0950 1050   185    25. C
(G  O E (U) UOp (Sht )
10        1   1    25.
FBAN
(NFr) O (NTo) Nc C (Vmn (Vmx Bctrl (Qini) T A (Extr
  194            D 0900 1100   194        C
(G  O E (U) UOp (Sht )
10        1   0   -50.
FBAN
(NFr) O (NTo) Nc C (Vmn (Vmx Bctrl (Qini) T A (Extr
  196            D 0780 1200   196   -50. C
(G  O E (U) UOp (Sht )
10        2   1   -50.
FBAN
(NFr) O (NTo) Nc C (Vmn (Vmx Bctrl (Qini) T A (Extr
  197            D 0900 1100   197        C
(G  O E (U) UOp (Sht )
10        1   0   -50.
FBAN
(NFr) O (NTo) Nc C (Vmn (Vmx Bctrl (Qini) T A (Extr
  198            D 0800 1200   198   -50. C
(G  O E (U) UOp (Sht )
10        2   1   -50.
FBAN
(NFr) O (NTo) Nc C (Vmn (Vmx Bctrl (Qini) T A (Extr
  199            D 0900 1100   199    10. C
(G  O E (U) UOp (Sht )
10        3   1    10.
FBAN
(NFr) O (NTo) Nc C (Vmn (Vmx Bctrl (Qini) T A (Extr
  205            D 0800 1200   205    50. C
(G  O E (U) UOp (Sht )
10        1   1    50.
FBAN
(NFr) O (NTo) Nc C (Vmn (Vmx Bctrl (Qini) T A (Extr
  206            D 0800 1200   206    50. C
(G  O E (U) UOp (Sht )
10        1   1    50.
FBAN
(NFr) O (NTo) Nc C (Vmn (Vmx Bctrl (Qini) T A (Extr
  233     210  1 D 0950 1100   210        C     210
(G  O E (U) UOp (Sht )
10        1   0  -136.
FBAN
(NFr) O (NTo) Nc C (Vmn (Vmx Bctrl (Qini) T A (Extr
  218            D 0950 1050   218        C
(G  O E (U) UOp (Sht )
10        1   0   91.5
FBAN
(NFr) O (NTo) Nc C (Vmn (Vmx Bctrl (Qini) T A (Extr
  217     218  2 D 0950 1050   218   -60. C     218
(G  O E (U) UOp (Sht )
10        1   1   -60.
FBAN
(NFr) O (NTo) Nc C (Vmn (Vmx Bctrl (Qini) T A (Extr
  218     234  1 D 0950 1050   218        C     218
(G  O E (U) UOp (Sht )
10        1   0   -60.
FBAN
(NFr) O (NTo) Nc C (Vmn (Vmx Bctrl (Qini) T A (Extr
  229            F 0950 1050   229   55.4 C
(G  O E (U) UOp (Sht )
10        1   0   -15.
20        2   2   27.7
FBAN
(NFr) O (NTo) Nc C (Vmn (Vmx Bctrl (Qini) T A (Extr
  230            F 0950 1050   230        C
(G  O E (U) UOp (Sht )
10        2   0   150.
FBAN
(NFr) O (NTo) Nc C (Vmn (Vmx Bctrl (Qini) T A (Extr
  231            D 0950 1050   231   -45. C
(G  O E (U) UOp (Sht )
10        1   1   -45.
FBAN
(NFr) O (NTo) Nc C (Vmn (Vmx Bctrl (Qini) T A (Extr
  232            F 0900 1100   232        C
(G  O E (U) UOp (Sht )
10        2   0    15.
FBAN
(NFr) O (NTo) Nc C (Vmn (Vmx Bctrl (Qini) T A (Extr
  233            D 0950 1100   233  -136. C
(G  O E (U) UOp (Sht )
10        1   1  -136.
FBAN
(NFr) O (NTo) Nc C (Vmn (Vmx Bctrl (Qini) T A (Extr
  234            D 0950 1050   234        C
(G  O E (U) UOp (Sht )
10        2   0   150.
FBAN
(NFr) O (NTo) Nc C (Vmn (Vmx Bctrl (Qini) T A (Extr
  235      92  1 D 0950 1100   235  -73.5 C     235
(G  O E (U) UOp (Sht )
10        1   1  -73.5
FBAN
(NFr) O (NTo) Nc C (Vmn (Vmx Bctrl (Qini) T A (Extr
  299     235  1 D 0950 1100   235        C     235
(G  O E (U) UOp (Sht )
10        1   0  -136.
FBAN
(NFr) O (NTo) Nc C (Vmn (Vmx Bctrl (Qini) T A (Extr
  238            D 0900 1100   238        C
(G  O E (U) UOp (Sht )
10        1   0   -15.
FBAN
(NFr) O (NTo) Nc C (Vmn (Vmx Bctrl (Qini) T A (Extr
  241            D 0900 1100   241   -30. C
(G  O E (U) UOp (Sht )
10        1   1    -5.
20        1   1   -25.
FBAN
(NFr) O (NTo) Nc C (Vmn (Vmx Bctrl (Qini) T A (Extr
  245            D 0950 1050   236    30. C
(G  O E (U) UOp (Sht )
10        2   2    15.
FBAN
(NFr) O (NTo) Nc C (Vmn (Vmx Bctrl (Qini) T A (Extr
  246            D 0820 1100   246   -50. C
(G  O E (U) UOp (Sht )
10        2   1   -50.
FBAN
(NFr) O (NTo) Nc C (Vmn (Vmx Bctrl (Qini) T A (Extr
  273            D 0950 1050   273   216. C
(G  O E (U) UOp (Sht )
10        2   2   108.
FBAN
(NFr) O (NTo) Nc C (Vmn (Vmx Bctrl (Qini) T A (Extr
  274            D 0950 1050   274   135. C
(G  O E (U) UOp (Sht )
10        2   2   67.5
FBAN
(NFr) O (NTo) Nc C (Vmn (Vmx Bctrl (Qini) T A (Extr
  276            D 0950 1050   276   21.6 C
(G  O E (U) UOp (Sht )
10        2   1   21.6
FBAN
(NFr) O (NTo) Nc C (Vmn (Vmx Bctrl (Qini) T A (Extr
  277            D 0950 1050   277   64.8 C
(G  O E (U) UOp (Sht )
10        1   1   64.8
FBAN
(NFr) O (NTo) Nc C (Vmn (Vmx Bctrl (Qini) T A (Extr
  278            D 0950 1050   278   135. C
(G  O E (U) UOp (Sht )
10        2   2   67.5
FBAN
(NFr) O (NTo) Nc C (Vmn (Vmx Bctrl (Qini) T A (Extr
  299            D 0950 1100   299  -136. C
(G  O E (U) UOp (Sht )
10        1   1  -136.
FBAN
(NFr) O (NTo) Nc C (Vmn (Vmx Bctrl (Qini) T A (Extr
  309            F 0950 1050   309   32.8 C
(G  O E (U) UOp (Sht )
10        1   1   32.8
FBAN
(NFr) O (NTo) Nc C (Vmn (Vmx Bctrl (Qini) T A (Extr
  313            D 0950 1050   313   100. C
(G  O E (U) UOp (Sht )
10        1   1   100.
FBAN
(NFr) O (NTo) Nc C (Vmn (Vmx Bctrl (Qini) T A (Extr
  314            D 0950 1050   314        C
(G  O E (U) UOp (Sht )
10        1   0   32.8
FBAN
(NFr) O (NTo) Nc C (Vmn (Vmx Bctrl (Qini) T A (Extr
  315            D 0950 1050   315   -20. C
(G  O E (U) UOp (Sht )
10        2   1   -20.
20        1   0   24.6
FBAN
(NFr) O (NTo) Nc C (Vmn (Vmx Bctrl (Qini) T A (Extr
  320     390  1 D 0950 1100   320        C     320
(G  O E (U) UOp (Sht )
10        1   0  -90.7
FBAN
(NFr) O (NTo) Nc C (Vmn (Vmx Bctrl (Qini) T A (Extr
  324            D 0900 1100   324    25. C
(G  O E (U) UOp (Sht )
10        4   1    25.
FBAN
(NFr) O (NTo) Nc C (Vmn (Vmx Bctrl (Qini) T A (Extr
 4050     325  1 D 0950 1100   325  -90.6 C     325
(G  O E (U) UOp (Sht )
10        1   1  -90.6
FBAN
(NFr) O (NTo) Nc C (Vmn (Vmx Bctrl (Qini) T A (Extr
 4050     325  2 D 0950 1100   325        C     325
(G  O E (U) UOp (Sht )
10        1   0  -90.6
FBAN
(NFr) O (NTo) Nc C (Vmn (Vmx Bctrl (Qini) T A (Extr
  332            D 0950 1050   332   32.8 C
(G  O E (U) UOp (Sht )
10        1   1   32.8
FBAN
(NFr) O (NTo) Nc C (Vmn (Vmx Bctrl (Qini) T A (Extr
  338            F 0950 1050   338        C
(G  O E (U) UOp (Sht )
10        3   0     6.
FBAN
(NFr) O (NTo) Nc C (Vmn (Vmx Bctrl (Qini) T A (Extr
  339            F 0950 1050   339        C
(G  O E (U) UOp (Sht )
10        3   0     6.
FBAN
(NFr) O (NTo) Nc C (Vmn (Vmx Bctrl (Qini) T A (Extr
  341    4065  1 D 0950 1050   341        C     341
(G  O E (U) UOp (Sht )
10        1   0   -50.
FBAN
(NFr) O (NTo) Nc C (Vmn (Vmx Bctrl (Qini) T A (Extr
  342            D 0950 1050   342        C
(G  O E (U) UOp (Sht )
10        1   0   15.7
FBAN
(NFr) O (NTo) Nc C (Vmn (Vmx Bctrl (Qini) T A (Extr
 4050     349  2 D 1000 1100   349   -91. C     349
(G  O E (U) UOp (Sht )
10        1   1   -91.
FBAN
(NFr) O (NTo) Nc C (Vmn (Vmx Bctrl (Qini) T A (Extr
  350            D 0950 1050   350   200. C
(G  O E (U) UOp (Sht )
10        1   1   200.
FBAN
(NFr) O (NTo) Nc C (Vmn (Vmx Bctrl (Qini) T A (Extr
  351            D 0900 1100   351   -50. C
(G  O E (U) UOp (Sht )
10        2   1   -50.
FBAN
(NFr) O (NTo) Nc C (Vmn (Vmx Bctrl (Qini) T A (Extr
  352            D 0900 1100   352   -50. C
(G  O E (U) UOp (Sht )
10        2   1   -50.
FBAN
(NFr) O (NTo) Nc C (Vmn (Vmx Bctrl (Qini) T A (Extr
  353            D 0950 1050   353    41. C
(G  O E (U) UOp (Sht )
10        3   1    41.
FBAN
(NFr) O (NTo) Nc C (Vmn (Vmx Bctrl (Qini) T A (Extr
  360            D 0950 1100   360  -272. C
(G  O E (U) UOp (Sht )
10        2   2  -136.
FBAN
(NFr) O (NTo) Nc C (Vmn (Vmx Bctrl (Qini) T A (Extr
  362            D 0950 1050   362   17.1 C
(G  O E (U) UOp (Sht )
10        1   1   17.1
FBAN
(NFr) O (NTo) Nc C (Vmn (Vmx Bctrl (Qini) T A (Extr
  371            D 0900 1050   371        C
(G  O E (U) UOp (Sht )
10        1   0   -50.
FBAN
(NFr) O (NTo) Nc C (Vmn (Vmx Bctrl (Qini) T A (Extr
  376            F 0950 1050   376    50. C
(G  O E (U) UOp (Sht )
10        2   1    50.
FBAN
(NFr) O (NTo) Nc C (Vmn (Vmx Bctrl (Qini) T A (Extr
  378            F 1000 1100   378  -180. C
(G  O E (U) UOp (Sht )
10        1   1  -180.
FBAN
(NFr) O (NTo) Nc C (Vmn (Vmx Bctrl (Qini) T A (Extr
 4050     384  1 D 1000 1100   384   -91. C     384
(G  O E (U) UOp (Sht )
10        1   1   -91.
FBAN
(NFr) O (NTo) Nc C (Vmn (Vmx Bctrl (Qini) T A (Extr
  385            D 0950 1050   385        C
(G  O E (U) UOp (Sht )
10        1   0   200.
FBAN
(NFr) O (NTo) Nc C (Vmn (Vmx Bctrl (Qini) T A (Extr
  389            F 0900 1100   389   26.8 C
(G  O E (U) UOp (Sht )
10        3   1   26.8
FBAN
(NFr) O (NTo) Nc C (Vmn (Vmx Bctrl (Qini) T A (Extr
  390            D 0950 1100   390  -182. C
(G  O E (U) UOp (Sht )
10        2   2   -91.
20        1   0  -180.
FBAN
(NFr) O (NTo) Nc C (Vmn (Vmx Bctrl (Qini) T A (Extr
  391            D 0950 1050   391   150. C
(G  O E (U) UOp (Sht )
10        2   1   150.
FBAN
(NFr) O (NTo) Nc C (Vmn (Vmx Bctrl (Qini) T A (Extr
  399            D 1000 1050   399        C
(G  O E (U) UOp (Sht )
10        1   0   16.6
FBAN
(NFr) O (NTo) Nc C (Vmn (Vmx Bctrl (Qini) T A (Extr
  411            D 0800 1200   411    63. C
(G  O E (U) UOp (Sht )
10        1   1    63.
FBAN
(NFr) O (NTo) Nc C (Vmn (Vmx Bctrl (Qini) T A (Extr
  415            D 0900 1100   415  120.6 C
(G  O E (U) UOp (Sht )
10        1   1    63.
20        2   2   28.8
FBAN
(NFr) O (NTo) Nc C (Vmn (Vmx Bctrl (Qini) T A (Extr
  422            D 0800 1200   422    63. C
(G  O E (U) UOp (Sht )
10        1   1    63.
FBAN
(NFr) O (NTo) Nc C (Vmn (Vmx Bctrl (Qini) T A (Extr
  428            D 0950 1050   428    21. C
(G  O E (U) UOp (Sht )
10        1   1    21.
FBAN
(NFr) O (NTo) Nc C (Vmn (Vmx Bctrl (Qini) T A (Extr
  429            D 0800 1200   429   16.2 C
(G  O E (U) UOp (Sht )
10        4   2    8.1
FBAN
(NFr) O (NTo) Nc C (Vmn (Vmx Bctrl (Qini) T A (Extr
  431            D 0950 1050   431        C
(G  O E (U) UOp (Sht )
10        2   0   -60.
FBAN
(NFr) O (NTo) Nc C (Vmn (Vmx Bctrl (Qini) T A (Extr
  435     438  2 D 0950 1050   435        C     435
(G  O E (U) UOp (Sht )
10        1   0  -132.
FBAN
(NFr) O (NTo) Nc C (Vmn (Vmx Bctrl (Qini) T A (Extr
  436            D 0900 1100   436   28.8 C
(G  O E (U) UOp (Sht )
10        1   1   28.8
FBAN
(NFr) O (NTo) Nc C (Vmn (Vmx Bctrl (Qini) T A (Extr
  437            D 0900 1100   437   57.6 C
(G  O E (U) UOp (Sht )
10        2   2   28.8
FBAN
(NFr) O (NTo) Nc C (Vmn (Vmx Bctrl (Qini) T A (Extr
  438            D 0950 1050   438        C
(G  O E (U) UOp (Sht )
10        1   0  -132.
FBAN
(NFr) O (NTo) Nc C (Vmn (Vmx Bctrl (Qini) T A (Extr
  443            D 0900 1100   443  172.8 C
(G  O E (U) UOp (Sht )
10        2   2   28.8
20        2   2   28.8
30        2   2   28.8
FBAN
(NFr) O (NTo) Nc C (Vmn (Vmx Bctrl (Qini) T A (Extr
  444            D 0950 1050   444   57.6 C
(G  O E (U) UOp (Sht )
10        2   2   28.8
FBAN
(NFr) O (NTo) Nc C (Vmn (Vmx Bctrl (Qini) T A (Extr
  445            D 0950 1050   445   57.6 C
(G  O E (U) UOp (Sht )
10        2   2   28.8
FBAN
(NFr) O (NTo) Nc C (Vmn (Vmx Bctrl (Qini) T A (Extr
  447            D 0950 1050   447    63. C
(G  O E (U) UOp (Sht )
10        1   1    63.
FBAN
(NFr) O (NTo) Nc C (Vmn (Vmx Bctrl (Qini) T A (Extr
  455            D 1000 1050   455    63. C
(G  O E (U) UOp (Sht )
10        1   1    63.
FBAN
(NFr) O (NTo) Nc C (Vmn (Vmx Bctrl (Qini) T A (Extr
  459            D 0900 1100   459    21. C
(G  O E (U) UOp (Sht )
10        1   1    21.
FBAN
(NFr) O (NTo) Nc C (Vmn (Vmx Bctrl (Qini) T A (Extr
  465            D 0900 1100   465   126. C
(G  O E (U) UOp (Sht )
10        2   2    63.
FBAN
(NFr) O (NTo) Nc C (Vmn (Vmx Bctrl (Qini) T A (Extr
  467            D 0900 1100   467   86.4 C
(G  O E (U) UOp (Sht )
10        1   1   28.8
20        1   1   57.6
FBAN
(NFr) O (NTo) Nc C (Vmn (Vmx Bctrl (Qini) T A (Extr
  473            D 0950 1100   473   126. C
(G  O E (U) UOp (Sht )
10        2   2    63.
FBAN
(NFr) O (NTo) Nc C (Vmn (Vmx Bctrl (Qini) T A (Extr
  475            D 0900 1100   475    63. C
(G  O E (U) UOp (Sht )
10        1   1    63.
FBAN
(NFr) O (NTo) Nc C (Vmn (Vmx Bctrl (Qini) T A (Extr
  476            D 0900 1100   476    63. C
(G  O E (U) UOp (Sht )
10        1   1    63.
FBAN
(NFr) O (NTo) Nc C (Vmn (Vmx Bctrl (Qini) T A (Extr
  485            D 0800 1200   485   28.8 C
(G  O E (U) UOp (Sht )
10        1   1   28.8
FBAN
(NFr) O (NTo) Nc C (Vmn (Vmx Bctrl (Qini) T A (Extr
  486            D 0950 1050   486   57.6 C
(G  O E (U) UOp (Sht )
10        2   2   28.8
FBAN
(NFr) O (NTo) Nc C (Vmn (Vmx Bctrl (Qini) T A (Extr
  488            D 0950 1050   488        C
(G  O E (U) UOp (Sht )
10        1   0   150.
20        1   0   200.
FBAN
(NFr) O (NTo) Nc C (Vmn (Vmx Bctrl (Qini) T A (Extr
  491     492  1 D 0950 1050   492        C     492
(G  O E (U) UOp (Sht )
10        1   0   -96.
FBAN
(NFr) O (NTo) Nc C (Vmn (Vmx Bctrl (Qini) T A (Extr
  491     492  2 D 0950 1050   492        C     492
(G  O E (U) UOp (Sht )
10        1   0   -96.
FBAN
(NFr) O (NTo) Nc C (Vmn (Vmx Bctrl (Qini) T A (Extr
  491     492  3 D 0950 1050   492        C     492
(G  O E (U) UOp (Sht )
10        1   0   -96.
FBAN
(NFr) O (NTo) Nc C (Vmn (Vmx Bctrl (Qini) T A (Extr
  492     487  1 D 0950 1050   492        C     492
(G  O E (U) UOp (Sht )
10        1   0   -96.
FBAN
(NFr) O (NTo) Nc C (Vmn (Vmx Bctrl (Qini) T A (Extr
  492     487  2 D 0950 1050   492        C     492
(G  O E (U) UOp (Sht )
10        1   0   -96.
FBAN
(NFr) O (NTo) Nc C (Vmn (Vmx Bctrl (Qini) T A (Extr
  493            D 0900 1100   493  120.6 C
(G  O E (U) UOp (Sht )
10        1   1   57.6
20        1   1    63.
FBAN
(NFr) O (NTo) Nc C (Vmn (Vmx Bctrl (Qini) T A (Extr
  494            D 0900 1150   494   32.4 C
(G  O E (U) UOp (Sht )
10        6   4    8.1
FBAN
(NFr) O (NTo) Nc C (Vmn (Vmx Bctrl (Qini) T A (Extr
  496            D 0950 1050   496  172.8 C
(G  O E (U) UOp (Sht )
10        3   3   57.6
FBAN
(NFr) O (NTo) Nc C (Vmn (Vmx Bctrl (Qini) T A (Extr
  561     527  1 D 0950 1050   527        C     527
(G  O E (U) UOp (Sht )
10        1   0  -91.5
FBAN
(NFr) O (NTo) Nc C (Vmn (Vmx Bctrl (Qini) T A (Extr
  528            D 0950 1050   528    30. C
(G  O E (U) UOp (Sht )
10        1   1    30.
FBAN
(NFr) O (NTo) Nc C (Vmn (Vmx Bctrl (Qini) T A (Extr
  535            D 0950 1100   535        C
(G  O E (U) UOp (Sht )
10        1   0  -165.
FBAN
(NFr) O (NTo) Nc C (Vmn (Vmx Bctrl (Qini) T A (Extr
  540            D 0950 1046   540        C
(G  O E (U) UOp (Sht )
10        2   0  -180.
FBAN
(NFr) O (NTo) Nc C (Vmn (Vmx Bctrl (Qini) T A (Extr
  547     552  1 D 0950 1046   552        C     552
(G  O E (U) UOp (Sht )
10        1   0   -90.
FBAN
(NFr) O (NTo) Nc C (Vmn (Vmx Bctrl (Qini) T A (Extr
...